Version 4
SHEET 1 1556 880
WIRE 880 -368 400 -368
WIRE 400 -240 400 -368
WIRE 656 -80 640 -80
WIRE 848 -80 816 -80
WIRE 400 -64 400 -176
WIRE 400 -64 -96 -64
WIRE 640 -64 640 -80
WIRE 640 -64 400 -64
WIRE 848 -64 848 -80
WIRE 880 -64 880 -368
WIRE 880 -64 848 -64
WIRE 992 -64 880 -64
WIRE 1200 -64 992 -64
WIRE 1280 -64 1200 -64
WIRE 656 -48 608 -48
WIRE 880 32 880 -64
WIRE 992 48 992 -64
WIRE 1200 48 1200 -64
WIRE -96 80 -96 -64
WIRE 400 96 400 -64
WIRE 608 144 608 -48
WIRE 880 144 880 112
WIRE 880 144 608 144
WIRE 992 144 992 112
WIRE 992 144 880 144
WIRE 608 176 608 144
WIRE 880 176 880 144
WIRE -96 288 -96 160
WIRE 400 288 400 160
WIRE 400 288 -96 288
WIRE 608 288 608 240
WIRE 608 288 400 288
WIRE 880 288 880 256
WIRE 880 288 608 288
WIRE 1200 288 1200 112
WIRE 1200 288 1536 272
WIRE 1200 288 880 288
WIRE 1536 320 1536 272
WIRE 608 336 608 288
WIRE -96 384 -96 288
WIRE 400 384 400 288
WIRE 608 432 608 400
WIRE 720 432 608 432
WIRE 880 432 880 368
WIRE 880 432 720 432
WIRE 1008 432 880 432
WIRE 1200 432 1200 288
WIRE 704 480 688 480
WIRE 720 480 720 432
WIRE 720 480 704 480
WIRE -96 496 -96 464
WIRE 400 496 400 448
WIRE 400 496 -96 496
WIRE 592 496 400 496
WIRE 832 512 704 512
WIRE 880 544 880 432
WIRE 1008 560 1008 432
WIRE 400 608 400 496
WIRE 400 784 400 672
WIRE 832 784 832 512
WIRE 832 784 400 784
WIRE 880 784 880 624
WIRE 880 784 832 784
WIRE 1008 784 1008 624
WIRE 1008 784 880 784
WIRE 1200 784 1200 496
WIRE 1200 784 1008 784
WIRE 1280 784 1200 784
FLAG 1536 320 0
FLAG -96 496 -Vin
IOPIN -96 496 In
FLAG 1280 784 -Vout
IOPIN 1280 784 Out
FLAG 1280 -64 +Vout
IOPIN 1280 -64 Out
FLAG -96 -64 +Vin
IOPIN -96 -64 In
SYMBOL cap 384 384 R0
SYMATTR InstName C1
SYMATTR Value 10µF
SYMBOL res 864 272 R0
SYMATTR InstName R1
SYMATTR Value 1032
SYMBOL res 864 528 R0
SYMATTR InstName R2
SYMATTR Value 120
SYMBOL cap 1184 432 R0
SYMATTR InstName C2
SYMATTR Value 10µF
SYMBOL voltage -96 368 R0
SYMATTR InstName V1
SYMATTR Value 24V
SYMBOL AutoGenerated\\LM337_N_TRANS 640 496 R0
SYMATTR InstName U1
SYMBOL voltage -96 64 R0
SYMATTR InstName V2
SYMATTR Value 24V
SYMBOL cap 384 96 R0
SYMATTR InstName C3
SYMATTR Value 10µF
SYMBOL res 864 160 R0
SYMATTR InstName R3
SYMATTR Value 1032
SYMBOL res 864 16 R0
SYMATTR InstName R4
SYMATTR Value 120
SYMBOL cap 1184 48 R0
SYMATTR InstName C4
SYMATTR Value 10µF
SYMBOL AutoGenerated\\LM317_TRANS 736 -64 R0
SYMATTR InstName U2
SYMBOL cap 592 176 R0
SYMATTR InstName C5
SYMATTR Value 10µF
SYMBOL cap 592 336 R0
SYMATTR InstName C6
SYMATTR Value 10µF
SYMBOL diode 384 608 R0
SYMATTR InstName D1
SYMATTR Value 1N4002
SYMBOL diode 1024 624 R180
WINDOW 0 24 64 Left 2
WINDOW 3 24 0 Left 2
SYMATTR InstName D2
SYMATTR Value 1N4002
SYMBOL diode 416 -176 R180
WINDOW 0 24 64 Left 2
WINDOW 3 24 0 Left 2
SYMATTR InstName D3
SYMATTR Value 1N4002
SYMBOL diode 1008 112 R180
WINDOW 0 24 64 Left 2
WINDOW 3 24 0 Left 2
SYMATTR InstName D4
SYMATTR Value 1N4002
TEXT 408 368 Left 2 !.ic V(C1)=0
TEXT 1216 416 Left 2 !.ic V(C2)=0
TEXT -200 864 Left 2 !.tran 0.1s 10s
TEXT -744 280 Left 2 !.lib LM337_N_TRANS.LIB
TEXT -736 320 Left 2 !.lib LM317_TRANS.LIB
